Version 4
SHEET 1 880 680
WIRE 112 96 -112 96
WIRE 224 96 192 96
WIRE 368 96 304 96
WIRE 368 144 368 96
WIRE -112 176 -112 96
WIRE 368 240 368 224
WIRE 480 240 368 240
WIRE 560 240 480 240
WIRE 368 256 368 240
WIRE -112 336 -112 256
WIRE 48 336 -112 336
WIRE 112 336 48 336
WIRE 224 336 192 336
WIRE 368 336 304 336
WIRE 48 384 48 336
FLAG 48 384 0
FLAG 480 240 VRef
SYMBOL Res 208 80 R90
WINDOW 0 0 56 VBottom 2
WINDOW 3 32 56 VTop 2
WINDOW 123 54 56 VTop 2
SYMATTR InstName R1
SYMATTR Value 1K
SYMATTR Value2 tol=.1%
SYMBOL Res 320 80 R90
WINDOW 0 0 56 VBottom 2
WINDOW 3 32 56 VTop 2
WINDOW 123 54 56 VTop 2
SYMATTR InstName R2
SYMATTR Value 1K
SYMATTR Value2 tol=.1%  tc=15e-6
SYMBOL Res 384 240 R180
WINDOW 0 36 76 Left 2
WINDOW 3 36 40 Left 2
SYMATTR InstName R3
SYMATTR Value 1K
SYMBOL Res 384 352 R180
WINDOW 0 36 76 Left 2
WINDOW 3 36 40 Left 2
SYMATTR InstName R4
SYMATTR Value 1K
SYMBOL Res 208 352 R270
WINDOW 0 32 56 VTop 2
WINDOW 3 0 56 VBottom 2
WINDOW 123 -22 56 VBottom 2
SYMATTR InstName R5
SYMATTR Value 1K
SYMATTR Value2 tol=.1%
SYMBOL Res 96 352 R270
WINDOW 0 32 56 VTop 2
WINDOW 3 0 56 VBottom 2
WINDOW 123 -22 56 VBottom 2
SYMATTR InstName R6
SYMATTR Value 1K
SYMATTR Value2 tol=.15%
SYMBOL Misc/battery -112 160 R0
SYMATTR InstName V1
SYMATTR Value 4.096
SYMATTR SpiceLine Rser=0.000001
TEXT 648 80 Left 2 !.STEP temp 15 25 1\n.OP
